*SPEF "ieee 1481-1999"
*DESIGN "tt_um_mult_4"
*DATE "14:46:06 Monday December 01, 2025"
*VENDOR "The OpenROAD Project"
*PROGRAM "OpenROAD"
*VERSION "edf00dff99f6c40d67a30c0e22a8191c5d2ed9d6"
*DESIGN_FLOW "NAME_SCOPE LOCAL" "PIN_CAP NONE"
*DIVIDER /
*DELIMITER :
*BUS_DELIMITER []
*T_UNIT 1 NS
*C_UNIT 1 PF
*R_UNIT 1 OHM
*L_UNIT 1 HENRY

*NAME_MAP
*3 clk
*4 ena
*5 rst_n
*6 ui_in[0]
*7 ui_in[1]
*8 ui_in[2]
*9 ui_in[3]
*10 ui_in[4]
*11 ui_in[5]
*12 ui_in[6]
*13 ui_in[7]
*14 uio_in[0]
*15 uio_in[1]
*16 uio_in[2]
*17 uio_in[3]
*18 uio_in[4]
*19 uio_in[5]
*20 uio_in[6]
*21 uio_in[7]
*22 net14
*23 net15
*24 net16
*25 net17
*26 net18
*27 net19
*28 net20
*29 net21
*30 net22
*31 uio_out[1]
*32 net23
*33 net24
*34 net25
*35 net26
*36 net27
*37 net28
*38 uo_out[0]
*39 uo_out[1]
*40 uo_out[2]
*41 uo_out[3]
*42 uo_out[4]
*43 uo_out[5]
*44 uo_out[6]
*45 uo_out[7]
*46 _021_
*47 _022_
*48 _023_
*49 _024_
*50 _025_
*51 _026_
*52 _027_
*53 _028_
*54 _029_
*55 _030_
*56 _031_
*57 _032_
*58 _033_
*59 _034_
*60 _035_
*61 _036_
*62 _037_
*63 _038_
*64 _039_
*65 _040_
*66 _041_
*67 _042_
*68 _043_
*69 _044_
*70 _045_
*71 _046_
*72 _047_
*73 _048_
*74 _049_
*75 _050_
*76 _051_
*77 _052_
*78 _053_
*79 _054_
*80 _055_
*81 _056_
*82 _057_
*83 _058_
*84 _059_
*85 _060_
*86 _061_
*87 _062_
*88 _063_
*89 _064_
*90 _065_
*91 _066_
*92 _067_
*93 _068_
*94 _069_
*95 _070_
*96 _071_
*97 _072_
*98 _073_
*99 _074_
*100 _075_
*101 _076_
*102 _077_
*103 _078_
*104 _079_
*105 _080_
*106 _081_
*107 _082_
*108 _083_
*109 _084_
*110 _085_
*111 _086_
*112 _087_
*113 _088_
*114 _089_
*115 _090_
*116 _091_
*117 _092_
*118 _093_
*119 _094_
*120 _095_
*121 _096_
*122 _097_
*123 _098_
*124 _099_
*125 _100_
*126 _101_
*127 _102_
*128 _103_
*129 _104_
*130 _105_
*131 _106_
*132 _107_
*133 _108_
*134 _109_
*135 _110_
*136 _111_
*137 _112_
*138 _113_
*139 _114_
*140 _115_
*141 _116_
*142 _117_
*143 _118_
*144 _119_
*145 _120_
*146 _121_
*147 _122_
*148 _123_
*149 _124_
*150 _125_
*151 _126_
*152 clknet_0_clk
*153 clknet_2_0__leaf_clk
*154 clknet_2_1__leaf_clk
*155 clknet_2_2__leaf_clk
*156 clknet_2_3__leaf_clk
*157 mult_4\.acc0\.A\[0\]
*158 mult_4\.acc0\.A\[1\]
*159 mult_4\.acc0\.A\[2\]
*160 mult_4\.acc0\.A\[3\]
*161 mult_4\.acc0\.A\[4\]
*162 mult_4\.acc0\.A\[5\]
*163 mult_4\.acc0\.A\[6\]
*164 mult_4\.acc0\.A\[7\]
*165 mult_4\.comp0\.B\[0\]
*166 mult_4\.comp0\.B\[1\]
*167 mult_4\.comp0\.B\[2\]
*168 mult_4\.comp0\.B\[3\]
*169 mult_4\.control0\.add
*170 mult_4\.control0\.count\[0\]
*171 mult_4\.control0\.count\[1\]
*172 mult_4\.control0\.count\[2\]
*173 mult_4\.control0\.count\[3\]
*174 mult_4\.control0\.done
*175 mult_4\.control0\.reset
*176 mult_4\.control0\.rst
*177 mult_4\.control0\.sh
*178 mult_4\.control0\.state\[0\]
*179 mult_4\.control0\.state\[1\]
*180 mult_4\.control0\.state\[2\]
*181 net1
*182 net10
*183 net11
*184 net12
*185 net13
*186 net2
*187 net29
*188 net3
*189 net30
*190 net31
*191 net32
*192 net33
*193 net34
*194 net35
*195 net36
*196 net37
*197 net38
*198 net39
*199 net4
*200 net40
*201 net41
*202 net42
*203 net43
*204 net44
*205 net45
*206 net46
*207 net47
*208 net48
*209 net49
*210 net5
*211 net50
*212 net51
*213 net52
*214 net53
*215 net54
*216 net55
*217 net56
*218 net57
*219 net58
*220 net59
*221 net6
*222 net60
*223 net61
*224 net62
*225 net63
*226 net64
*227 net65
*228 net66
*229 net67
*230 net68
*231 net69
*232 net7
*233 net8
*234 net9
*235 FILLER_0_109
*236 FILLER_0_113
*237 FILLER_0_125
*238 FILLER_0_137
*239 FILLER_0_141
*240 FILLER_0_15
*241 FILLER_0_153
*242 FILLER_0_165
*243 FILLER_0_169
*244 FILLER_0_181
*245 FILLER_0_193
*246 FILLER_0_197
*247 FILLER_0_209
*248 FILLER_0_221
*249 FILLER_0_225
*250 FILLER_0_237
*251 FILLER_0_249
*252 FILLER_0_253
*253 FILLER_0_265
*254 FILLER_0_27
*255 FILLER_0_277
*256 FILLER_0_281
*257 FILLER_0_29
*258 FILLER_0_293
*259 FILLER_0_3
*260 FILLER_0_305
*261 FILLER_0_309
*262 FILLER_0_321
*263 FILLER_0_333
*264 FILLER_0_337
*265 FILLER_0_349
*266 FILLER_0_361
*267 FILLER_0_365
*268 FILLER_0_377
*269 FILLER_0_389
*270 FILLER_0_393
*271 FILLER_0_405
*272 FILLER_0_41
*273 FILLER_0_417
*274 FILLER_0_421
*275 FILLER_0_433
*276 FILLER_0_445
*277 FILLER_0_449
*278 FILLER_0_461
*279 FILLER_0_473
*280 FILLER_0_477
*281 FILLER_0_489
*282 FILLER_0_501
*283 FILLER_0_505
*284 FILLER_0_517
*285 FILLER_0_529
*286 FILLER_0_53
*287 FILLER_0_533
*288 FILLER_0_545
*289 FILLER_0_557
*290 FILLER_0_561
*291 FILLER_0_57
*292 FILLER_0_573
*293 FILLER_0_585
*294 FILLER_0_589
*295 FILLER_0_601
*296 FILLER_0_613
*297 FILLER_0_617
*298 FILLER_0_629
*299 FILLER_0_641
*300 FILLER_0_645
*301 FILLER_0_657
*302 FILLER_0_669
*303 FILLER_0_673
*304 FILLER_0_685
*305 FILLER_0_69
*306 FILLER_0_697
*307 FILLER_0_701
*308 FILLER_0_81
*309 FILLER_0_85
*310 FILLER_0_97
*311 FILLER_10_109
*312 FILLER_10_121
*313 FILLER_10_133
*314 FILLER_10_139
*315 FILLER_10_141
*316 FILLER_10_15
*317 FILLER_10_153
*318 FILLER_10_165
*319 FILLER_10_177
*320 FILLER_10_189
*321 FILLER_10_195
*322 FILLER_10_197
*323 FILLER_10_209
*324 FILLER_10_221
*325 FILLER_10_233
*326 FILLER_10_245
*327 FILLER_10_251
*328 FILLER_10_253
*329 FILLER_10_265
*330 FILLER_10_27
*331 FILLER_10_277
*332 FILLER_10_289
*333 FILLER_10_29
*334 FILLER_10_3
*335 FILLER_10_301
*336 FILLER_10_307
*337 FILLER_10_309
*338 FILLER_10_321
*339 FILLER_10_333
*340 FILLER_10_345
*341 FILLER_10_357
*342 FILLER_10_363
*343 FILLER_10_365
*344 FILLER_10_377
*345 FILLER_10_389
*346 FILLER_10_401
*347 FILLER_10_41
*348 FILLER_10_413
*349 FILLER_10_419
*350 FILLER_10_421
*351 FILLER_10_433
*352 FILLER_10_445
*353 FILLER_10_457
*354 FILLER_10_469
*355 FILLER_10_475
*356 FILLER_10_477
*357 FILLER_10_489
*358 FILLER_10_501
*359 FILLER_10_513
*360 FILLER_10_525
*361 FILLER_10_53
*362 FILLER_10_531
*363 FILLER_10_533
*364 FILLER_10_545
*365 FILLER_10_557
*366 FILLER_10_569
*367 FILLER_10_581
*368 FILLER_10_587
*369 FILLER_10_589
*370 FILLER_10_601
*371 FILLER_10_613
*372 FILLER_10_625
*373 FILLER_10_637
*374 FILLER_10_643
*375 FILLER_10_645
*376 FILLER_10_65
*377 FILLER_10_657
*378 FILLER_10_669
*379 FILLER_10_681
*380 FILLER_10_693
*381 FILLER_10_699
*382 FILLER_10_701
*383 FILLER_10_77
*384 FILLER_10_83
*385 FILLER_10_85
*386 FILLER_10_97
*387 FILLER_11_105
*388 FILLER_11_111
*389 FILLER_11_113
*390 FILLER_11_125
*391 FILLER_11_137
*392 FILLER_11_149
*393 FILLER_11_15
*394 FILLER_11_161
*395 FILLER_11_167
*396 FILLER_11_169
*397 FILLER_11_181
*398 FILLER_11_193
*399 FILLER_11_205
*400 FILLER_11_217
*401 FILLER_11_223
*402 FILLER_11_225
*403 FILLER_11_237
*404 FILLER_11_249
*405 FILLER_11_261
*406 FILLER_11_27
*407 FILLER_11_273
*408 FILLER_11_279
*409 FILLER_11_281
*410 FILLER_11_293
*411 FILLER_11_3
*412 FILLER_11_305
*413 FILLER_11_317
*414 FILLER_11_329
*415 FILLER_11_335
*416 FILLER_11_337
*417 FILLER_11_349
*418 FILLER_11_361
*419 FILLER_11_373
*420 FILLER_11_385
*421 FILLER_11_39
*422 FILLER_11_391
*423 FILLER_11_393
*424 FILLER_11_405
*425 FILLER_11_417
*426 FILLER_11_429
*427 FILLER_11_441
*428 FILLER_11_447
*429 FILLER_11_449
*430 FILLER_11_461
*431 FILLER_11_473
*432 FILLER_11_485
*433 FILLER_11_497
*434 FILLER_11_503
*435 FILLER_11_505
*436 FILLER_11_51
*437 FILLER_11_517
*438 FILLER_11_529
*439 FILLER_11_541
*440 FILLER_11_55
*441 FILLER_11_553
*442 FILLER_11_559
*443 FILLER_11_561
*444 FILLER_11_57
*445 FILLER_11_573
*446 FILLER_11_585
*447 FILLER_11_597
*448 FILLER_11_609
*449 FILLER_11_615
*450 FILLER_11_617
*451 FILLER_11_629
*452 FILLER_11_641
*453 FILLER_11_653
*454 FILLER_11_665
*455 FILLER_11_671
*456 FILLER_11_673
*457 FILLER_11_685
*458 FILLER_11_69
*459 FILLER_11_697
*460 FILLER_11_709
*461 FILLER_11_81
*462 FILLER_11_93
*463 FILLER_12_109
*464 FILLER_12_121
*465 FILLER_12_133
*466 FILLER_12_139
*467 FILLER_12_141
*468 FILLER_12_15
*469 FILLER_12_153
*470 FILLER_12_165
*471 FILLER_12_177
*472 FILLER_12_189
*473 FILLER_12_195
*474 FILLER_12_197
*475 FILLER_12_209
*476 FILLER_12_221
*477 FILLER_12_233
*478 FILLER_12_245
*479 FILLER_12_251
*480 FILLER_12_253
*481 FILLER_12_265
*482 FILLER_12_27
*483 FILLER_12_277
*484 FILLER_12_289
*485 FILLER_12_29
*486 FILLER_12_3
*487 FILLER_12_301
*488 FILLER_12_307
*489 FILLER_12_309
*490 FILLER_12_321
*491 FILLER_12_333
*492 FILLER_12_345
*493 FILLER_12_357
*494 FILLER_12_363
*495 FILLER_12_365
*496 FILLER_12_377
*497 FILLER_12_389
*498 FILLER_12_401
*499 FILLER_12_41
*500 FILLER_12_413
*501 FILLER_12_419
*502 FILLER_12_421
*503 FILLER_12_433
*504 FILLER_12_445
*505 FILLER_12_457
*506 FILLER_12_469
*507 FILLER_12_475
*508 FILLER_12_477
*509 FILLER_12_489
*510 FILLER_12_501
*511 FILLER_12_513
*512 FILLER_12_525
*513 FILLER_12_53
*514 FILLER_12_531
*515 FILLER_12_533
*516 FILLER_12_545
*517 FILLER_12_557
*518 FILLER_12_569
*519 FILLER_12_581
*520 FILLER_12_587
*521 FILLER_12_589
*522 FILLER_12_601
*523 FILLER_12_613
*524 FILLER_12_625
*525 FILLER_12_637
*526 FILLER_12_643
*527 FILLER_12_645
*528 FILLER_12_65
*529 FILLER_12_657
*530 FILLER_12_669
*531 FILLER_12_681
*532 FILLER_12_693
*533 FILLER_12_699
*534 FILLER_12_701
*535 FILLER_12_77
*536 FILLER_12_83
*537 FILLER_12_85
*538 FILLER_12_97
*539 FILLER_13_105
*540 FILLER_13_111
*541 FILLER_13_113
*542 FILLER_13_125
*543 FILLER_13_137
*544 FILLER_13_149
*545 FILLER_13_15
*546 FILLER_13_161
*547 FILLER_13_167
*548 FILLER_13_169
*549 FILLER_13_181
*550 FILLER_13_193
*551 FILLER_13_205
*552 FILLER_13_217
*553 FILLER_13_223
*554 FILLER_13_225
*555 FILLER_13_237
*556 FILLER_13_249
*557 FILLER_13_261
*558 FILLER_13_27
*559 FILLER_13_273
*560 FILLER_13_279
*561 FILLER_13_281
*562 FILLER_13_293
*563 FILLER_13_3
*564 FILLER_13_305
*565 FILLER_13_317
*566 FILLER_13_329
*567 FILLER_13_335
*568 FILLER_13_337
*569 FILLER_13_349
*570 FILLER_13_361
*571 FILLER_13_373
*572 FILLER_13_385
*573 FILLER_13_39
*574 FILLER_13_391
*575 FILLER_13_393
*576 FILLER_13_405
*577 FILLER_13_417
*578 FILLER_13_429
*579 FILLER_13_441
*580 FILLER_13_447
*581 FILLER_13_449
*582 FILLER_13_461
*583 FILLER_13_473
*584 FILLER_13_485
*585 FILLER_13_497
*586 FILLER_13_503
*587 FILLER_13_505
*588 FILLER_13_51
*589 FILLER_13_517
*590 FILLER_13_529
*591 FILLER_13_541
*592 FILLER_13_55
*593 FILLER_13_553
*594 FILLER_13_559
*595 FILLER_13_561
*596 FILLER_13_57
*597 FILLER_13_573
*598 FILLER_13_585
*599 FILLER_13_597
*600 FILLER_13_609
*601 FILLER_13_615
*602 FILLER_13_617
*603 FILLER_13_629
*604 FILLER_13_641
*605 FILLER_13_653
*606 FILLER_13_665
*607 FILLER_13_671
*608 FILLER_13_673
*609 FILLER_13_685
*610 FILLER_13_69
*611 FILLER_13_697
*612 FILLER_13_709
*613 FILLER_13_81
*614 FILLER_13_93
*615 FILLER_14_109
*616 FILLER_14_121
*617 FILLER_14_133
*618 FILLER_14_139
*619 FILLER_14_141
*620 FILLER_14_15
*621 FILLER_14_153
*622 FILLER_14_165
*623 FILLER_14_177
*624 FILLER_14_189
*625 FILLER_14_195
*626 FILLER_14_197
*627 FILLER_14_209
*628 FILLER_14_221
*629 FILLER_14_233
*630 FILLER_14_245
*631 FILLER_14_251
*632 FILLER_14_253
*633 FILLER_14_265
*634 FILLER_14_27
*635 FILLER_14_277
*636 FILLER_14_289
*637 FILLER_14_29
*638 FILLER_14_3
*639 FILLER_14_301
*640 FILLER_14_307
*641 FILLER_14_309
*642 FILLER_14_321
*643 FILLER_14_333
*644 FILLER_14_345
*645 FILLER_14_357
*646 FILLER_14_363
*647 FILLER_14_365
*648 FILLER_14_377
*649 FILLER_14_389
*650 FILLER_14_401
*651 FILLER_14_41
*652 FILLER_14_413
*653 FILLER_14_419
*654 FILLER_14_421
*655 FILLER_14_433
*656 FILLER_14_445
*657 FILLER_14_457
*658 FILLER_14_469
*659 FILLER_14_475
*660 FILLER_14_477
*661 FILLER_14_489
*662 FILLER_14_501
*663 FILLER_14_513
*664 FILLER_14_525
*665 FILLER_14_53
*666 FILLER_14_531
*667 FILLER_14_533
*668 FILLER_14_545
*669 FILLER_14_557
*670 FILLER_14_569
*671 FILLER_14_581
*672 FILLER_14_587
*673 FILLER_14_589
*674 FILLER_14_601
*675 FILLER_14_613
*676 FILLER_14_625
*677 FILLER_14_637
*678 FILLER_14_643
*679 FILLER_14_645
*680 FILLER_14_65
*681 FILLER_14_657
*682 FILLER_14_669
*683 FILLER_14_681
*684 FILLER_14_693
*685 FILLER_14_699
*686 FILLER_14_701
*687 FILLER_14_77
*688 FILLER_14_83
*689 FILLER_14_85
*690 FILLER_14_97
*691 FILLER_15_105
*692 FILLER_15_111
*693 FILLER_15_113
*694 FILLER_15_125
*695 FILLER_15_137
*696 FILLER_15_149
*697 FILLER_15_15
*698 FILLER_15_161
*699 FILLER_15_167
*700 FILLER_15_169
*701 FILLER_15_181
*702 FILLER_15_193
*703 FILLER_15_205
*704 FILLER_15_217
*705 FILLER_15_223
*706 FILLER_15_225
*707 FILLER_15_237
*708 FILLER_15_249
*709 FILLER_15_261
*710 FILLER_15_27
*711 FILLER_15_273
*712 FILLER_15_279
*713 FILLER_15_281
*714 FILLER_15_293
*715 FILLER_15_3
*716 FILLER_15_305
*717 FILLER_15_317
*718 FILLER_15_329
*719 FILLER_15_335
*720 FILLER_15_337
*721 FILLER_15_349
*722 FILLER_15_361
*723 FILLER_15_373
*724 FILLER_15_385
*725 FILLER_15_39
*726 FILLER_15_391
*727 FILLER_15_393
*728 FILLER_15_405
*729 FILLER_15_417
*730 FILLER_15_429
*731 FILLER_15_441
*732 FILLER_15_447
*733 FILLER_15_449
*734 FILLER_15_461
*735 FILLER_15_473
*736 FILLER_15_485
*737 FILLER_15_497
*738 FILLER_15_503
*739 FILLER_15_505
*740 FILLER_15_51
*741 FILLER_15_517
*742 FILLER_15_529
*743 FILLER_15_541
*744 FILLER_15_55
*745 FILLER_15_553
*746 FILLER_15_559
*747 FILLER_15_561
*748 FILLER_15_57
*749 FILLER_15_573
*750 FILLER_15_585
*751 FILLER_15_597
*752 FILLER_15_609
*753 FILLER_15_615
*754 FILLER_15_617
*755 FILLER_15_629
*756 FILLER_15_641
*757 FILLER_15_653
*758 FILLER_15_665
*759 FILLER_15_671
*760 FILLER_15_673
*761 FILLER_15_685
*762 FILLER_15_69
*763 FILLER_15_697
*764 FILLER_15_709
*765 FILLER_15_81
*766 FILLER_15_93
*767 FILLER_16_109
*768 FILLER_16_121
*769 FILLER_16_133
*770 FILLER_16_139
*771 FILLER_16_141
*772 FILLER_16_15
*773 FILLER_16_153
*774 FILLER_16_165
*775 FILLER_16_177
*776 FILLER_16_189
*777 FILLER_16_195
*778 FILLER_16_197
*779 FILLER_16_209
*780 FILLER_16_221
*781 FILLER_16_233
*782 FILLER_16_245
*783 FILLER_16_251
*784 FILLER_16_253
*785 FILLER_16_265
*786 FILLER_16_27
*787 FILLER_16_277
*788 FILLER_16_289
*789 FILLER_16_29
*790 FILLER_16_3
*791 FILLER_16_301
*792 FILLER_16_307
*793 FILLER_16_309
*794 FILLER_16_321
*795 FILLER_16_333
*796 FILLER_16_345
*797 FILLER_16_357
*798 FILLER_16_363
*799 FILLER_16_365
*800 FILLER_16_377
*801 FILLER_16_389
*802 FILLER_16_401
*803 FILLER_16_41
*804 FILLER_16_413
*805 FILLER_16_419
*806 FILLER_16_421
*807 FILLER_16_433
*808 FILLER_16_445
*809 FILLER_16_457
*810 FILLER_16_469
*811 FILLER_16_475
*812 FILLER_16_477
*813 FILLER_16_489
*814 FILLER_16_501
*815 FILLER_16_513
*816 FILLER_16_525
*817 FILLER_16_53
*818 FILLER_16_531
*819 FILLER_16_533
*820 FILLER_16_545
*821 FILLER_16_557
*822 FILLER_16_569
*823 FILLER_16_581
*824 FILLER_16_587
*825 FILLER_16_589
*826 FILLER_16_601
*827 FILLER_16_613
*828 FILLER_16_625
*829 FILLER_16_637
*830 FILLER_16_643
*831 FILLER_16_645
*832 FILLER_16_65
*833 FILLER_16_657
*834 FILLER_16_669
*835 FILLER_16_681
*836 FILLER_16_693
*837 FILLER_16_699
*838 FILLER_16_701
*839 FILLER_16_77
*840 FILLER_16_83
*841 FILLER_16_85
*842 FILLER_16_97
*843 FILLER_17_105
*844 FILLER_17_111
*845 FILLER_17_113
*846 FILLER_17_125
*847 FILLER_17_137
*848 FILLER_17_149
*849 FILLER_17_15
*850 FILLER_17_161
*851 FILLER_17_167
*852 FILLER_17_169
*853 FILLER_17_181
*854 FILLER_17_193
*855 FILLER_17_205
*856 FILLER_17_217
*857 FILLER_17_223
*858 FILLER_17_225
*859 FILLER_17_237
*860 FILLER_17_249
*861 FILLER_17_261
*862 FILLER_17_27
*863 FILLER_17_273
*864 FILLER_17_279
*865 FILLER_17_281
*866 FILLER_17_293
*867 FILLER_17_3
*868 FILLER_17_305
*869 FILLER_17_317
*870 FILLER_17_329
*871 FILLER_17_335
*872 FILLER_17_337
*873 FILLER_17_349
*874 FILLER_17_361
*875 FILLER_17_373
*876 FILLER_17_385
*877 FILLER_17_39
*878 FILLER_17_391
*879 FILLER_17_393
*880 FILLER_17_405
*881 FILLER_17_417
*882 FILLER_17_429
*883 FILLER_17_441
*884 FILLER_17_447
*885 FILLER_17_449
*886 FILLER_17_461
*887 FILLER_17_473
*888 FILLER_17_485
*889 FILLER_17_497
*890 FILLER_17_503
*891 FILLER_17_505
*892 FILLER_17_51
*893 FILLER_17_517
*894 FILLER_17_529
*895 FILLER_17_541
*896 FILLER_17_55
*897 FILLER_17_553
*898 FILLER_17_559
*899 FILLER_17_561
*900 FILLER_17_57
*901 FILLER_17_573
*902 FILLER_17_585
*903 FILLER_17_597
*904 FILLER_17_609
*905 FILLER_17_615
*906 FILLER_17_617
*907 FILLER_17_629
*908 FILLER_17_641
*909 FILLER_17_653
*910 FILLER_17_665
*911 FILLER_17_671
*912 FILLER_17_673
*913 FILLER_17_685
*914 FILLER_17_69
*915 FILLER_17_697
*916 FILLER_17_709
*917 FILLER_17_81
*918 FILLER_17_93
*919 FILLER_18_109
*920 FILLER_18_121
*921 FILLER_18_133
*922 FILLER_18_139
*923 FILLER_18_141
*924 FILLER_18_15
*925 FILLER_18_153
*926 FILLER_18_165
*927 FILLER_18_177
*928 FILLER_18_189
*929 FILLER_18_195
*930 FILLER_18_197
*931 FILLER_18_209
*932 FILLER_18_221
*933 FILLER_18_233
*934 FILLER_18_245
*935 FILLER_18_251
*936 FILLER_18_253
*937 FILLER_18_265
*938 FILLER_18_27
*939 FILLER_18_277
*940 FILLER_18_289
*941 FILLER_18_29
*942 FILLER_18_3
*943 FILLER_18_301
*944 FILLER_18_307
*945 FILLER_18_309
*946 FILLER_18_321
*947 FILLER_18_333
*948 FILLER_18_345
*949 FILLER_18_357
*950 FILLER_18_363
*951 FILLER_18_365
*952 FILLER_18_377
*953 FILLER_18_389
*954 FILLER_18_401
*955 FILLER_18_41
*956 FILLER_18_413
*957 FILLER_18_419
*958 FILLER_18_421
*959 FILLER_18_433
*960 FILLER_18_445
*961 FILLER_18_457
*962 FILLER_18_469
*963 FILLER_18_475
*964 FILLER_18_477
*965 FILLER_18_489
*966 FILLER_18_501
*967 FILLER_18_513
*968 FILLER_18_525
*969 FILLER_18_53
*970 FILLER_18_531
*971 FILLER_18_533
*972 FILLER_18_545
*973 FILLER_18_557
*974 FILLER_18_569
*975 FILLER_18_581
*976 FILLER_18_587
*977 FILLER_18_589
*978 FILLER_18_601
*979 FILLER_18_613
*980 FILLER_18_625
*981 FILLER_18_637
*982 FILLER_18_643
*983 FILLER_18_645
*984 FILLER_18_65
*985 FILLER_18_657
*986 FILLER_18_669
*987 FILLER_18_681
*988 FILLER_18_693
*989 FILLER_18_699
*990 FILLER_18_701
*991 FILLER_18_77
*992 FILLER_18_83
*993 FILLER_18_85
*994 FILLER_18_97
*995 FILLER_19_105
*996 FILLER_19_111
*997 FILLER_19_113
*998 FILLER_19_125
*999 FILLER_19_137
*1000 FILLER_19_149
*1001 FILLER_19_15
*1002 FILLER_19_161
*1003 FILLER_19_167
*1004 FILLER_19_169
*1005 FILLER_19_181
*1006 FILLER_19_193
*1007 FILLER_19_205
*1008 FILLER_19_217
*1009 FILLER_19_223
*1010 FILLER_19_225
*1011 FILLER_19_237
*1012 FILLER_19_249
*1013 FILLER_19_261
*1014 FILLER_19_27
*1015 FILLER_19_273
*1016 FILLER_19_279
*1017 FILLER_19_281
*1018 FILLER_19_293
*1019 FILLER_19_3
*1020 FILLER_19_305
*1021 FILLER_19_317
*1022 FILLER_19_329
*1023 FILLER_19_335
*1024 FILLER_19_337
*1025 FILLER_19_349
*1026 FILLER_19_361
*1027 FILLER_19_373
*1028 FILLER_19_385
*1029 FILLER_19_39
*1030 FILLER_19_391
*1031 FILLER_19_393
*1032 FILLER_19_405
*1033 FILLER_19_417
*1034 FILLER_19_429
*1035 FILLER_19_441
*1036 FILLER_19_447
*1037 FILLER_19_449
*1038 FILLER_19_461
*1039 FILLER_19_473
*1040 FILLER_19_485
*1041 FILLER_19_497
*1042 FILLER_19_503
*1043 FILLER_19_505
*1044 FILLER_19_51
*1045 FILLER_19_517
*1046 FILLER_19_529
*1047 FILLER_19_541
*1048 FILLER_19_55
*1049 FILLER_19_553
*1050 FILLER_19_559
*1051 FILLER_19_561
*1052 FILLER_19_57
*1053 FILLER_19_573
*1054 FILLER_19_585
*1055 FILLER_19_597
*1056 FILLER_19_609
*1057 FILLER_19_615
*1058 FILLER_19_617
*1059 FILLER_19_629
*1060 FILLER_19_641
*1061 FILLER_19_653
*1062 FILLER_19_665
*1063 FILLER_19_671
*1064 FILLER_19_673
*1065 FILLER_19_685
*1066 FILLER_19_69
*1067 FILLER_19_697
*1068 FILLER_19_709
*1069 FILLER_19_81
*1070 FILLER_19_93
*1071 FILLER_1_105
*1072 FILLER_1_111
*1073 FILLER_1_113
*1074 FILLER_1_125
*1075 FILLER_1_137
*1076 FILLER_1_149
*1077 FILLER_1_15
*1078 FILLER_1_161
*1079 FILLER_1_167
*1080 FILLER_1_169
*1081 FILLER_1_181
*1082 FILLER_1_193
*1083 FILLER_1_205
*1084 FILLER_1_217
*1085 FILLER_1_223
*1086 FILLER_1_225
*1087 FILLER_1_237
*1088 FILLER_1_249
*1089 FILLER_1_261
*1090 FILLER_1_27
*1091 FILLER_1_273
*1092 FILLER_1_279
*1093 FILLER_1_281
*1094 FILLER_1_293
*1095 FILLER_1_3
*1096 FILLER_1_305
*1097 FILLER_1_317
*1098 FILLER_1_329
*1099 FILLER_1_335
*1100 FILLER_1_337
*1101 FILLER_1_349
*1102 FILLER_1_361
*1103 FILLER_1_373
*1104 FILLER_1_385
*1105 FILLER_1_39
*1106 FILLER_1_391
*1107 FILLER_1_393
*1108 FILLER_1_405
*1109 FILLER_1_417
*1110 FILLER_1_429
*1111 FILLER_1_441
*1112 FILLER_1_447
*1113 FILLER_1_449
*1114 FILLER_1_461
*1115 FILLER_1_473
*1116 FILLER_1_485
*1117 FILLER_1_497
*1118 FILLER_1_503
*1119 FILLER_1_505
*1120 FILLER_1_51
*1121 FILLER_1_517
*1122 FILLER_1_529
*1123 FILLER_1_541
*1124 FILLER_1_55
*1125 FILLER_1_553
*1126 FILLER_1_559
*1127 FILLER_1_561
*1128 FILLER_1_57
*1129 FILLER_1_573
*1130 FILLER_1_585
*1131 FILLER_1_597
*1132 FILLER_1_609
*1133 FILLER_1_615
*1134 FILLER_1_617
*1135 FILLER_1_629
*1136 FILLER_1_641
*1137 FILLER_1_653
*1138 FILLER_1_665
*1139 FILLER_1_671
*1140 FILLER_1_673
*1141 FILLER_1_685
*1142 FILLER_1_69
*1143 FILLER_1_697
*1144 FILLER_1_709
*1145 FILLER_1_81
*1146 FILLER_1_93
*1147 FILLER_20_109
*1148 FILLER_20_121
*1149 FILLER_20_133
*1150 FILLER_20_139
*1151 FILLER_20_141
*1152 FILLER_20_15
*1153 FILLER_20_153
*1154 FILLER_20_165
*1155 FILLER_20_177
*1156 FILLER_20_189
*1157 FILLER_20_195
*1158 FILLER_20_197
*1159 FILLER_20_209
*1160 FILLER_20_221
*1161 FILLER_20_233
*1162 FILLER_20_245
*1163 FILLER_20_251
*1164 FILLER_20_253
*1165 FILLER_20_265
*1166 FILLER_20_27
*1167 FILLER_20_277
*1168 FILLER_20_289
*1169 FILLER_20_29
*1170 FILLER_20_3
*1171 FILLER_20_301
*1172 FILLER_20_307
*1173 FILLER_20_309
*1174 FILLER_20_321
*1175 FILLER_20_333
*1176 FILLER_20_345
*1177 FILLER_20_357
*1178 FILLER_20_363
*1179 FILLER_20_365
*1180 FILLER_20_377
*1181 FILLER_20_389
*1182 FILLER_20_401
*1183 FILLER_20_41
*1184 FILLER_20_413
*1185 FILLER_20_419
*1186 FILLER_20_421
*1187 FILLER_20_433
*1188 FILLER_20_445
*1189 FILLER_20_457
*1190 FILLER_20_469
*1191 FILLER_20_475
*1192 FILLER_20_477
*1193 FILLER_20_489
*1194 FILLER_20_501
*1195 FILLER_20_513
*1196 FILLER_20_525
*1197 FILLER_20_53
*1198 FILLER_20_531
*1199 FILLER_20_533
*1200 FILLER_20_545
*1201 FILLER_20_557
*1202 FILLER_20_569
*1203 FILLER_20_581
*1204 FILLER_20_587
*1205 FILLER_20_589
*1206 FILLER_20_601
*1207 FILLER_20_613
*1208 FILLER_20_625
*1209 FILLER_20_637
*1210 FILLER_20_643
*1211 FILLER_20_645
*1212 FILLER_20_65
*1213 FILLER_20_657
*1214 FILLER_20_669
*1215 FILLER_20_681
*1216 FILLER_20_693
*1217 FILLER_20_699
*1218 FILLER_20_701
*1219 FILLER_20_77
*1220 FILLER_20_83
*1221 FILLER_20_85
*1222 FILLER_20_97
*1223 FILLER_21_105
*1224 FILLER_21_111
*1225 FILLER_21_113
*1226 FILLER_21_125
*1227 FILLER_21_137
*1228 FILLER_21_149
*1229 FILLER_21_15
*1230 FILLER_21_161
*1231 FILLER_21_167
*1232 FILLER_21_169
*1233 FILLER_21_181
*1234 FILLER_21_193
*1235 FILLER_21_205
*1236 FILLER_21_217
*1237 FILLER_21_223
*1238 FILLER_21_225
*1239 FILLER_21_237
*1240 FILLER_21_249
*1241 FILLER_21_261
*1242 FILLER_21_27
*1243 FILLER_21_273
*1244 FILLER_21_279
*1245 FILLER_21_281
*1246 FILLER_21_293
*1247 FILLER_21_3
*1248 FILLER_21_305
*1249 FILLER_21_317
*1250 FILLER_21_329
*1251 FILLER_21_335
*1252 FILLER_21_337
*1253 FILLER_21_349
*1254 FILLER_21_361
*1255 FILLER_21_373
*1256 FILLER_21_385
*1257 FILLER_21_39
*1258 FILLER_21_391
*1259 FILLER_21_393
*1260 FILLER_21_405
*1261 FILLER_21_417
*1262 FILLER_21_429
*1263 FILLER_21_441
*1264 FILLER_21_447
*1265 FILLER_21_449
*1266 FILLER_21_461
*1267 FILLER_21_473
*1268 FILLER_21_485
*1269 FILLER_21_497
*1270 FILLER_21_503
*1271 FILLER_21_505
*1272 FILLER_21_51
*1273 FILLER_21_517
*1274 FILLER_21_529
*1275 FILLER_21_541
*1276 FILLER_21_55
*1277 FILLER_21_553
*1278 FILLER_21_559
*1279 FILLER_21_561
*1280 FILLER_21_57
*1281 FILLER_21_573
*1282 FILLER_21_585
*1283 FILLER_21_597
*1284 FILLER_21_609
*1285 FILLER_21_615
*1286 FILLER_21_617
*1287 FILLER_21_629
*1288 FILLER_21_641
*1289 FILLER_21_653
*1290 FILLER_21_665
*1291 FILLER_21_671
*1292 FILLER_21_673
*1293 FILLER_21_685
*1294 FILLER_21_69
*1295 FILLER_21_697
*1296 FILLER_21_709
*1297 FILLER_21_81
*1298 FILLER_21_93
*1299 FILLER_22_109
*1300 FILLER_22_121
*1301 FILLER_22_133
*1302 FILLER_22_139
*1303 FILLER_22_141
*1304 FILLER_22_15
*1305 FILLER_22_153
*1306 FILLER_22_165
*1307 FILLER_22_177
*1308 FILLER_22_189
*1309 FILLER_22_195
*1310 FILLER_22_197
*1311 FILLER_22_209
*1312 FILLER_22_221
*1313 FILLER_22_233
*1314 FILLER_22_245
*1315 FILLER_22_251
*1316 FILLER_22_253
*1317 FILLER_22_265
*1318 FILLER_22_27
*1319 FILLER_22_277
*1320 FILLER_22_289
*1321 FILLER_22_29
*1322 FILLER_22_3
*1323 FILLER_22_301
*1324 FILLER_22_307
*1325 FILLER_22_309
*1326 FILLER_22_321
*1327 FILLER_22_333
*1328 FILLER_22_345
*1329 FILLER_22_357
*1330 FILLER_22_363
*1331 FILLER_22_365
*1332 FILLER_22_377
*1333 FILLER_22_389
*1334 FILLER_22_401
*1335 FILLER_22_41
*1336 FILLER_22_413
*1337 FILLER_22_419
*1338 FILLER_22_421
*1339 FILLER_22_433
*1340 FILLER_22_445
*1341 FILLER_22_457
*1342 FILLER_22_469
*1343 FILLER_22_475
*1344 FILLER_22_477
*1345 FILLER_22_489
*1346 FILLER_22_501
*1347 FILLER_22_513
*1348 FILLER_22_525
*1349 FILLER_22_53
*1350 FILLER_22_531
*1351 FILLER_22_533
*1352 FILLER_22_545
*1353 FILLER_22_557
*1354 FILLER_22_569
*1355 FILLER_22_581
*1356 FILLER_22_587
*1357 FILLER_22_589
*1358 FILLER_22_601
*1359 FILLER_22_613
*1360 FILLER_22_625
*1361 FILLER_22_637
*1362 FILLER_22_643
*1363 FILLER_22_645
*1364 FILLER_22_65
*1365 FILLER_22_657
*1366 FILLER_22_669
*1367 FILLER_22_681
*1368 FILLER_22_693
*1369 FILLER_22_699
*1370 FILLER_22_701
*1371 FILLER_22_77
*1372 FILLER_22_83
*1373 FILLER_22_85
*1374 FILLER_22_97
*1375 FILLER_23_105
*1376 FILLER_23_111
*1377 FILLER_23_113
*1378 FILLER_23_125
*1379 FILLER_23_137
*1380 FILLER_23_149
*1381 FILLER_23_15
*1382 FILLER_23_161
*1383 FILLER_23_167
*1384 FILLER_23_169
*1385 FILLER_23_181
*1386 FILLER_23_193
*1387 FILLER_23_205
*1388 FILLER_23_217
*1389 FILLER_23_223
*1390 FILLER_23_225
*1391 FILLER_23_237
*1392 FILLER_23_249
*1393 FILLER_23_261
*1394 FILLER_23_27
*1395 FILLER_23_273
*1396 FILLER_23_279
*1397 FILLER_23_281
*1398 FILLER_23_293
*1399 FILLER_23_3
*1400 FILLER_23_305
*1401 FILLER_23_317
*1402 FILLER_23_329
*1403 FILLER_23_335
*1404 FILLER_23_337
*1405 FILLER_23_349
*1406 FILLER_23_361
*1407 FILLER_23_373
*1408 FILLER_23_385
*1409 FILLER_23_39
*1410 FILLER_23_391
*1411 FILLER_23_393
*1412 FILLER_23_405
*1413 FILLER_23_417
*1414 FILLER_23_429
*1415 FILLER_23_441
*1416 FILLER_23_447
*1417 FILLER_23_449
*1418 FILLER_23_461
*1419 FILLER_23_473
*1420 FILLER_23_485
*1421 FILLER_23_497
*1422 FILLER_23_503
*1423 FILLER_23_505
*1424 FILLER_23_51
*1425 FILLER_23_517
*1426 FILLER_23_529
*1427 FILLER_23_541
*1428 FILLER_23_55
*1429 FILLER_23_553
*1430 FILLER_23_559
*1431 FILLER_23_561
*1432 FILLER_23_57
*1433 FILLER_23_573
*1434 FILLER_23_585
*1435 FILLER_23_597
*1436 FILLER_23_609
*1437 FILLER_23_615
*1438 FILLER_23_617
*1439 FILLER_23_629
*1440 FILLER_23_641
*1441 FILLER_23_653
*1442 FILLER_23_665
*1443 FILLER_23_671
*1444 FILLER_23_673
*1445 FILLER_23_685
*1446 FILLER_23_69
*1447 FILLER_23_697
*1448 FILLER_23_709
*1449 FILLER_23_81
*1450 FILLER_23_93
*1451 FILLER_24_109
*1452 FILLER_24_121
*1453 FILLER_24_133
*1454 FILLER_24_139
*1455 FILLER_24_141
*1456 FILLER_24_15
*1457 FILLER_24_153
*1458 FILLER_24_165
*1459 FILLER_24_177
*1460 FILLER_24_189
*1461 FILLER_24_195
*1462 FILLER_24_197
*1463 FILLER_24_209
*1464 FILLER_24_221
*1465 FILLER_24_233
*1466 FILLER_24_245
*1467 FILLER_24_251
*1468 FILLER_24_253
*1469 FILLER_24_265
*1470 FILLER_24_27
*1471 FILLER_24_277
*1472 FILLER_24_289
*1473 FILLER_24_29
*1474 FILLER_24_3
*1475 FILLER_24_301
*1476 FILLER_24_307
*1477 FILLER_24_309
*1478 FILLER_24_321
*1479 FILLER_24_333
*1480 FILLER_24_345
*1481 FILLER_24_357
*1482 FILLER_24_363
*1483 FILLER_24_365
*1484 FILLER_24_377
*1485 FILLER_24_389
*1486 FILLER_24_401
*1487 FILLER_24_41
*1488 FILLER_24_413
*1489 FILLER_24_419
*1490 FILLER_24_421
*1491 FILLER_24_433
*1492 FILLER_24_445
*1493 FILLER_24_457
*1494 FILLER_24_469
*1495 FILLER_24_475
*1496 FILLER_24_477
*1497 FILLER_24_489
*1498 FILLER_24_501
*1499 FILLER_24_513
*1500 FILLER_24_525
*1501 FILLER_24_53
*1502 FILLER_24_531
*1503 FILLER_24_533
*1504 FILLER_24_545
*1505 FILLER_24_557
*1506 FILLER_24_569
*1507 FILLER_24_581
*1508 FILLER_24_587
*1509 FILLER_24_589
*1510 FILLER_24_601
*1511 FILLER_24_613
*1512 FILLER_24_625
*1513 FILLER_24_637
*1514 FILLER_24_643
*1515 FILLER_24_645
*1516 FILLER_24_65
*1517 FILLER_24_657
*1518 FILLER_24_669
*1519 FILLER_24_681
*1520 FILLER_24_693
*1521 FILLER_24_699
*1522 FILLER_24_701
*1523 FILLER_24_77
*1524 FILLER_24_83
*1525 FILLER_24_85
*1526 FILLER_24_97
*1527 FILLER_25_105
*1528 FILLER_25_111
*1529 FILLER_25_113
*1530 FILLER_25_125
*1531 FILLER_25_137
*1532 FILLER_25_149
*1533 FILLER_25_15
*1534 FILLER_25_161
*1535 FILLER_25_167
*1536 FILLER_25_169
*1537 FILLER_25_181
*1538 FILLER_25_193
*1539 FILLER_25_205
*1540 FILLER_25_217
*1541 FILLER_25_223
*1542 FILLER_25_225
*1543 FILLER_25_237
*1544 FILLER_25_249
*1545 FILLER_25_261
*1546 FILLER_25_27
*1547 FILLER_25_273
*1548 FILLER_25_279
*1549 FILLER_25_281
*1550 FILLER_25_293
*1551 FILLER_25_3
*1552 FILLER_25_305
*1553 FILLER_25_317
*1554 FILLER_25_329
*1555 FILLER_25_335
*1556 FILLER_25_337
*1557 FILLER_25_349
*1558 FILLER_25_361
*1559 FILLER_25_373
*1560 FILLER_25_385
*1561 FILLER_25_39
*1562 FILLER_25_391
*1563 FILLER_25_393
*1564 FILLER_25_405
*1565 FILLER_25_417
*1566 FILLER_25_429
*1567 FILLER_25_441
*1568 FILLER_25_447
*1569 FILLER_25_449
*1570 FILLER_25_461
*1571 FILLER_25_473
*1572 FILLER_25_485
*1573 FILLER_25_497
*1574 FILLER_25_503
*1575 FILLER_25_505
*1576 FILLER_25_51
*1577 FILLER_25_517
*1578 FILLER_25_529
*1579 FILLER_25_541
*1580 FILLER_25_55
*1581 FILLER_25_553
*1582 FILLER_25_559
*1583 FILLER_25_561
*1584 FILLER_25_57
*1585 FILLER_25_573
*1586 FILLER_25_585
*1587 FILLER_25_597
*1588 FILLER_25_609
*1589 FILLER_25_615
*1590 FILLER_25_617
*1591 FILLER_25_629
*1592 FILLER_25_641
*1593 FILLER_25_653
*1594 FILLER_25_665
*1595 FILLER_25_671
*1596 FILLER_25_673
*1597 FILLER_25_685
*1598 FILLER_25_69
*1599 FILLER_25_697
*1600 FILLER_25_709
*1601 FILLER_25_81
*1602 FILLER_25_93
*1603 FILLER_26_109
*1604 FILLER_26_121
*1605 FILLER_26_133
*1606 FILLER_26_139
*1607 FILLER_26_141
*1608 FILLER_26_15
*1609 FILLER_26_153
*1610 FILLER_26_165
*1611 FILLER_26_177
*1612 FILLER_26_189
*1613 FILLER_26_195
*1614 FILLER_26_197
*1615 FILLER_26_209
*1616 FILLER_26_221
*1617 FILLER_26_233
*1618 FILLER_26_245
*1619 FILLER_26_251
*1620 FILLER_26_253
*1621 FILLER_26_265